Version 4
SHEET 1 880 680
WIRE 112 -80 0 -80
WIRE 336 -80 240 -80
WIRE 0 96 0 -80
WIRE 112 96 0 96
WIRE 336 96 240 96
WIRE 0 288 0 96
WIRE 112 288 0 288
WIRE 336 288 240 288
WIRE 0 432 0 288
FLAG 0 512 0
FLAG 176 512 0
FLAG 320 512 0
FLAG 176 432 Vcc
FLAG 176 256 Vcc
FLAG 176 64 Vcc
FLAG 176 -112 Vcc
FLAG 320 432 -Vcc
FLAG 176 320 -Vcc
FLAG 176 128 -Vcc
FLAG 176 -48 -Vcc
SYMBOL high_freq 176 -80 R0
SYMATTR InstName X1
SYMBOL low_freq 176 288 R0
SYMATTR InstName X2
SYMBOL med_freq 176 96 R0
SYMATTR InstName X3
SYMBOL voltage 176 416 R0
WINDOW 123 0 0 Left 0
WINDOW 39 0 0 Left 0
SYMATTR InstName V1
SYMATTR Value 15
SYMBOL voltage 320 416 R0
WINDOW 123 0 0 Left 0
WINDOW 39 0 0 Left 0
SYMATTR InstName V2
SYMATTR Value -15
SYMBOL voltage 0 416 R0
WINDOW 123 24 124 Left 2
WINDOW 39 0 0 Left 0
SYMATTR Value2 AC 1
SYMATTR InstName V3
SYMATTR Value ""
TEXT -32 560 Left 2 !.ac dec 100 0.1 5Meg
