Version 4
SHEET 1 1808 680
WIRE 688 -176 416 -176
WIRE 688 -144 640 -144
WIRE 688 -112 560 -112
WIRE 1024 -112 976 -112
WIRE 416 -96 416 -176
WIRE 416 -96 336 -96
WIRE 896 -96 880 -96
WIRE 1024 -96 1024 -112
WIRE 1120 -96 1024 -96
WIRE 1360 -96 1248 -96
WIRE 112 -80 0 -80
WIRE 336 -80 336 -96
WIRE 336 -80 240 -80
WIRE 688 -80 592 -80
WIRE 592 -64 592 -80
WIRE 560 0 560 -112
WIRE 576 0 560 0
WIRE 592 0 576 0
WIRE 576 16 576 0
WIRE 896 48 896 -96
WIRE 896 48 608 48
WIRE 1024 80 1024 64
WIRE 1120 80 1024 80
WIRE 1360 80 1248 80
WIRE 0 96 0 -80
WIRE 112 96 0 96
WIRE 320 96 320 80
WIRE 320 96 240 96
WIRE 608 192 608 48
WIRE 672 192 608 192
WIRE 816 192 752 192
WIRE 976 192 976 -112
WIRE 976 192 816 192
WIRE 816 208 816 192
WIRE 976 256 976 192
WIRE 416 272 416 -96
WIRE 736 272 736 240
WIRE 1024 272 1024 256
WIRE 1120 272 1024 272
WIRE 1360 272 1248 272
WIRE 0 288 0 96
WIRE 112 288 0 288
WIRE 320 288 320 272
WIRE 320 288 240 288
WIRE 800 336 752 336
WIRE 800 352 800 336
WIRE 736 368 736 336
WIRE 0 432 0 288
FLAG 0 512 0
FLAG 176 512 0
FLAG 320 512 0
FLAG 176 432 Vcc
FLAG 176 256 Vcc
FLAG 176 64 Vcc
FLAG 176 -112 Vcc
FLAG 320 432 -Vcc
FLAG 176 320 -Vcc
FLAG 176 128 -Vcc
FLAG 176 -48 -Vcc
FLAG 688 -16 Vcc
FLAG 688 -48 -Vcc
FLAG 576 16 0
FLAG 640 -144 Clk
FLAG 528 512 0
FLAG 528 432 Clk
FLAG 1184 240 Vcc
FLAG 1184 48 Vcc
FLAG 1184 -128 Vcc
FLAG 1184 304 -Vcc
FLAG 1184 112 -Vcc
FLAG 1184 -64 -Vcc
FLAG 688 240 0
FLAG 816 288 0
FLAG 736 368 Clk
FLAG 800 432 0
SYMBOL high_freq 176 -80 R0
SYMATTR InstName X1
SYMBOL low_freq 176 288 R0
SYMATTR InstName X2
SYMBOL med_freq 176 96 R0
SYMATTR InstName X3
SYMBOL voltage 176 416 R0
WINDOW 123 0 0 Left 0
WINDOW 39 0 0 Left 0
SYMATTR InstName V1
SYMATTR Value 15
SYMBOL voltage 320 416 R0
WINDOW 123 0 0 Left 0
WINDOW 39 0 0 Left 0
SYMATTR InstName V2
SYMATTR Value -15
SYMBOL voltage 0 416 R0
WINDOW 123 24 124 Left 2
WINDOW 39 0 0 Left 0
WINDOW 3 -82 131 Left 2
SYMATTR InstName V3
SYMATTR Value SINE(0 5 240k 0 0 90)
SYMBOL lf398 752 -128 R0
SYMATTR InstName U1
SYMBOL cap 576 -64 R0
SYMATTR InstName C1
SYMATTR Value 100p
SYMBOL voltage 528 416 R0
WINDOW 123 0 0 Left 0
WINDOW 39 0 0 Left 0
SYMATTR InstName V4
SYMATTR Value PULSE(0 5 1n 1n 1n 1.1u 1.67u)
SYMBOL high_freq 1184 -96 R0
SYMATTR InstName X4
SYMBOL low_freq 1184 272 R0
SYMATTR InstName X5
SYMBOL med_freq 1184 80 R0
SYMATTR InstName X6
SYMBOL sw 656 192 R270
SYMATTR InstName S1
SYMATTR Value MySwitch
SYMBOL res 800 192 R0
SYMATTR InstName R1
SYMATTR Value 1k
SYMBOL Digital\\inv 672 336 R270
SYMATTR InstName A1
SYMBOL voltage 800 336 R0
WINDOW 123 0 0 Left 0
WINDOW 39 0 0 Left 0
SYMATTR InstName V5
SYMATTR Value 0.5
TEXT -84 568 Left 2 !.tran 0 40u 20u
TEXT 720 -208 Left 1 !.include LF398.sub
TEXT 1152 464 Left 2 !.model MySwitch SW(Ron=180 Roff=1Meg Vt=1)
TEXT 1168 528 Left 2 !.model SW SW()
