Version 4
SHEET 1 880 680
WIRE -128 176 -176 176
WIRE 64 176 0 176
WIRE 256 176 192 176
WIRE 448 176 384 176
WIRE 624 176 576 176
FLAG -64 144 +V
IOPIN -64 144 In
FLAG -176 176 In
IOPIN -176 176 In
FLAG 624 176 Out
IOPIN 624 176 Out
FLAG 128 144 +V
IOPIN 128 144 In
FLAG 320 144 +V
IOPIN 320 144 In
FLAG 512 144 +V
IOPIN 512 144 In
FLAG -64 208 -V
IOPIN -64 208 In
FLAG 128 208 -V
IOPIN 128 208 In
FLAG 320 208 -V
IOPIN 320 208 In
FLAG 512 208 -V
IOPIN 512 208 In
SYMBOL dobleT_buffer -64 176 R0
WINDOW 39 -86 -94 Left 0
SYMATTR InstName X5
SYMATTR SpiceLine R=910 C=100p Cx=1n2 Ra=12k Rb=3k3
SYMBOL dobleT_buffer 128 176 R0
WINDOW 39 -87 91 Left 0
SYMATTR InstName X6
SYMATTR SpiceLine R=2k7 C=68p Cx=150p Ra=1k Rb=33k
SYMBOL dobleT_buffer 320 176 R0
WINDOW 39 -88 -98 Left 0
SYMATTR InstName X7
SYMATTR SpiceLine R=7k5 C=47p Cx=33p Ra=1k Rb=100k
SYMBOL dobleT_buffer 512 176 R0
WINDOW 39 -79 88 Left 0
SYMATTR InstName X8
SYMATTR SpiceLine R=1k C=390p Cx=180p Ra=3k Rb=22k
