Version 4
SHEET 1 880 680
WIRE -128 176 -176 176
WIRE 64 176 0 176
WIRE 256 176 192 176
WIRE 448 176 384 176
WIRE 624 176 576 176
FLAG -64 144 +V
IOPIN -64 144 In
FLAG -176 176 In
IOPIN -176 176 In
FLAG 624 176 Out
IOPIN 624 176 Out
FLAG 128 144 +V
IOPIN 128 144 In
FLAG 320 144 +V
IOPIN 320 144 In
FLAG 512 144 +V
IOPIN 512 144 In
FLAG -64 208 -V
IOPIN -64 208 In
FLAG 128 208 -V
IOPIN 128 208 In
FLAG 320 208 -V
IOPIN 320 208 In
FLAG 512 208 -V
IOPIN 512 208 In
SYMBOL dobleT -64 176 R0
WINDOW 39 -91 -94 Left 0
SYMATTR InstName X1
SYMATTR SpiceLine R=110k C=100p Cx=1n2 Ra=12k Rb=3k3
SYMBOL dobleT 128 176 R0
WINDOW 39 -85 88 Left 0
SYMATTR InstName X2
SYMATTR SpiceLine R=100k C=330p Cx=470p Ra=1k Rb=33k
SYMBOL dobleT 320 176 R0
WINDOW 39 -78 -91 Left 0
SYMATTR InstName X3
SYMATTR SpiceLine R=150k C=330p Cx=220p Ra=1k Rb=100k
SYMBOL dobleT 512 176 R0
WINDOW 39 -85 88 Left 0
SYMATTR InstName X4
SYMATTR SpiceLine R=180k C=330p Cx=150p Ra=3k Rb=22k
